8

C          1.00100        0.65890       -0.00710
C          2.52049        0.65332        0.00126
H          0.62844        1.70483       -0.00481
H          0.61773        0.13425        0.89323
H          0.62772        0.14178       -0.91595
H          2.89378        1.17045        0.91011
H          2.90376        1.17797       -0.89908
H          2.89305       -0.39260       -0.00103
